CM Example 1 :	Dipole in free space 	
CM See GetStarted.txt
CM 
CM 
CM 
CM 
CE
SY h=6.5	'height
SY f=0.1
SY m=-2
SY f2=0.172041
GW	1	5	m	0	h	-3	0	h	.0001	'Wire 1, 9 segments, halve wavelength long.
GW	2	10	m	0	h	3.5	0	h	.0001
GW	3	10	-3	0	h	-3	-7	h	.0001
GW	4	10	3.5	0	h	3.5	-7	h	.0001
GW	5	10	3.5	-7	h	3.5+3.5*f2	-7	h	.0001
GW	6	10	-3	-7	h	-3+6.5*f	-7	h	.0001
GE	1
GN	2	0	0	0	17	0.007
EK
EX	0	1	1	0	1	0	0	'Voltage source (1+j0) at wire 1 segment 5.
FR	0	0	0	0	7.1	0
EN
