CM Example 1 :	Dipole in free space 	
CM See GetStarted.txt
CM 
CM 
CM 
CM 
CE
SY h=5	'height
SY d=.3
SY h2=5
SY h3=1.277623
GW	1	1	0	0	4	0	d	4	.0005
GW	2	10	0	0	4	0	-h	4+h2	.0005
GW	3	10	0	d	4	0	d+h	4+h2	.0005
GW	4	10	0	d+h	4+h2	0	d	4+h3	.0005
GW	5	10	0	-h	4+h2	0	0	4+h3	.0005
GE	1
LD	5	0	0	0	58000000
GN	2	0	0	0	17	0.007
EK
EX	0	1	1	0	1	0	0	'Voltage source (1+j0) at wire 1 segment 5.
FR	0	0	0	0	14.15	0
EN
